Circuit: * E:\university\Diploma\LTspice\LTspice_test_schematic.asc

Warning: Multiple definitions of model "2scr375p" Type: BJT
Warning: Multiple definitions of model "bc857b" Type: BJT
Warning: Multiple definitions of model "bc847c" Type: BJT
Warning: Multiple definitions of model "bc847b" Type: BJT
WARNING: Node N011 is floating.
WARNING: Node N004 is floating.
WARNING: Node N002 is floating.

WARNING: Less than two connections to node N011.  This node is used by C7.
WARNING: Less than two connections to node N004.  This node is used by V2.
WARNING: Less than two connections to node N002.  This node is used by C8.
.OP point found by inspection.

Date: Fri Mar 29 10:32:31 2024
Total elapsed time: 0.077 seconds.

tnom = 27
temp = 27
method = modified trap
totiter = 2152
traniter = 2152
tranpoints = 1077
accept = 1051
rejected = 26
matrix size = 22
fillins = 7
solver = Normal
Matrix Compiler1: 1.83 KB object code size  0.8/0.4/[0.4]
Matrix Compiler2: off  [0.3]/0.5/0.4

