Circuit: * E:\university\Diploma\LTspice\LTspice_test_schematic.asc

Warning: Multiple definitions of model "2scr375p" Type: BJT
Warning: Multiple definitions of model "bc857b" Type: BJT
Warning: Multiple definitions of model "bc847c" Type: BJT
Warning: Multiple definitions of model "bc847b" Type: BJT
.OP point found by inspection.

Date: Thu Mar 28 11:41:48 2024
Total elapsed time: 0.225 seconds.

tnom = 27
temp = 27
method = modified trap
totiter = 11208
traniter = 11208
tranpoints = 3555
accept = 2749
rejected = 806
matrix size = 17
fillins = 6
solver = Normal
Matrix Compiler1: 1.62 KB object code size  0.5/0.2/[0.2]
Matrix Compiler2: off  [0.2]/0.2/0.2

