Circuit: * E:\university\Diploma\LTspice\LTspice_test_schematic.asc

Warning: Multiple definitions of model "2scr375p" Type: BJT
Warning: Multiple definitions of model "bc857b" Type: BJT
Warning: Multiple definitions of model "bc847c" Type: BJT
Warning: Multiple definitions of model "bc847b" Type: BJT
WARNING: Node N009 is floating.

WARNING: Less than two connections to node N009.  This node is used by C7.
.OP point found by inspection.

Date: Mon Apr 01 14:02:11 2024
Total elapsed time: 0.076 seconds.

tnom = 27
temp = 27
method = modified trap
totiter = 20471
traniter = 20471
tranpoints = 6085
accept = 4469
rejected = 1616
matrix size = 30
fillins = 12
solver = Normal
Matrix Compiler1:     160 opcodes  0.6/[0.2]/0.2
Matrix Compiler2: off  [0.2]/0.2/0.2

