Circuit: * E:\university\Diploma\LTspice\Test_without_capacitors.asc

Warning: Multiple definitions of model "2scr375p" Type: BJT
Warning: Multiple definitions of model "bc857b" Type: BJT
Warning: Multiple definitions of model "bc847c" Type: BJT
Warning: Multiple definitions of model "bc847b" Type: BJT
WARNING: Node N012 is floating.
WARNING: Node N005 is floating.
WARNING: Node N003 is floating.

WARNING: Less than two connections to node N012.  This node is used by C9.
WARNING: Less than two connections to node N005.  This node is used by V3.
WARNING: Less than two connections to node N003.  This node is used by C10.
.OP point found by inspection.

Date: Wed Mar 27 20:45:53 2024
Total elapsed time: 0.034 seconds.

tnom = 27
temp = 27
method = modified trap
totiter = 2220
traniter = 2220
tranpoints = 1111
accept = 1068
rejected = 43
matrix size = 39
fillins = 13
solver = Normal
Matrix Compiler1: 3.42 KB object code size  0.6/0.2/[0.2]
Matrix Compiler2: off  [0.2]/0.3/0.2

